[General]
network = Rohan_3
sim-time-limit = 20s
#CLIENT SIDE	

**.client.numApps=1
**.client.app[0].typename="TcpSessionApp"
**.client.app[0].connectAddress="server"
**.client.app[0].connectPort=1000
**.client.app[0].sendBytes=1MB

**.client1.app[0].typename="TcpSessionApp"
**.client1.app[0].connectAddress="server"
**.client1.app[0].connectPort=1001
**.client1.app[0].sendBytes=1MB

**.client2.app[0].typename="TcpSessionApp"
**.client2.app[0].connectAddress="server"
**.client2.app[0].connectPort=1002
**.client2.app[0].sendBytes=1MB

**.client3.app[0].typename="TcpSessionApp"
**.client3.app[0].connectAddress="server"
**.client3.app[0].connectPort=1003
**.client3.app[0].sendBytes=1MB

**.client4.app[0].typename="TcpSessionApp"
**.client4.app[0].connectAddress="server"
**.client4.app[0].connectPort=1004
**.client4.app[0].sendBytes=1MB
#server side

**.server.numApps=1
**.server.app[0].typename="TcpEchoApp"
**.server*.app[0].localPort=1000


